data_image0
_cell_length_a       9.72127
_cell_length_b       11.771
_cell_length_c       19.8284
_cell_angle_alpha    90
_cell_angle_beta     90
_cell_angle_gamma    90

_symmetry_space_group_name_H-M    "P 1"
_symmetry_int_tables_number       1

loop_
  _symmetry_equiv_pos_as_xyz
  'x, y, z'

loop_
  _atom_site_label
  _atom_site_occupancy
  _atom_site_fract_x
  _atom_site_fract_y
  _atom_site_fract_z
  _atom_site_thermal_displace_type
  _atom_site_B_iso_or_equiv
  _atom_site_type_symbol
  Fe1      1.0000 0.22544  0.37500  0.38703  Biso   1.000  Fe
  Fe2      1.0000 0.02456  0.37500  0.13703  Biso   1.000  Fe
  Fe3      1.0000 0.27456  0.12500  0.11297  Biso   1.000  Fe
  Fe4      1.0000 0.47544  0.12500  0.36297  Biso   1.000  Fe
  P1       1.0000 0.45068  0.37500  0.29691  Biso   1.000  P
  P2       1.0000 0.29932  0.37500  0.04691  Biso   1.000  P
  P3       1.0000 0.04932  0.12500  0.20309  Biso   1.000  P
  P4       1.0000 0.20068  0.12500  0.45309  Biso   1.000  P
  O1       1.0000 0.10558  0.37500  0.31016  Biso   1.000  O
  O2       1.0000 0.14442  0.37500  0.06016  Biso   1.000  O
  O3       1.0000 0.39442  0.12500  0.18984  Biso   1.000  O
  O4       1.0000 0.35558  0.12500  0.43984  Biso   1.000  O
  O5       1.0000 0.32654  0.37500  0.47139  Biso   1.000  O
  O6       1.0000 0.42346  0.37500  0.22139  Biso   1.000  O
  O7       1.0000 0.17346  0.12500  0.02861  Biso   1.000  O
  O8       1.0000 0.07654  0.12500  0.27861  Biso   1.000  O
  O9       1.0000 0.37639  0.47690  0.33355  Biso   1.000  O
  O10      1.0000 0.37361  0.27310  0.08355  Biso   1.000  O
  O11      1.0000 0.12361  0.22690  0.16645  Biso   1.000  O
  O12      1.0000 0.12639  0.02310  0.41645  Biso   1.000  O
  O13      1.0000 0.12361  0.02310  0.16645  Biso   1.000  O
  O14      1.0000 0.12639  0.22690  0.41645  Biso   1.000  O
  O15      1.0000 0.37639  0.27310  0.33355  Biso   1.000  O
  O16      1.0000 0.37361  0.47690  0.08355  Biso   1.000  O
  Mn1      1.0000 0.72544  0.37500  0.38703  Biso   1.000  Mn
  Fe5      1.0000 0.52456  0.37500  0.13703  Biso   1.000  Fe
  Fe6      1.0000 0.77456  0.12500  0.11297  Biso   1.000  Fe
  Fe7      1.0000 0.97544  0.12500  0.36297  Biso   1.000  Fe
  P5       1.0000 0.95068  0.37500  0.29691  Biso   1.000  P
  P6       1.0000 0.79932  0.37500  0.04691  Biso   1.000  P
  P7       1.0000 0.54932  0.12500  0.20309  Biso   1.000  P
  P8       1.0000 0.70068  0.12500  0.45309  Biso   1.000  P
  O17      1.0000 0.60558  0.37500  0.31016  Biso   1.000  O
  O18      1.0000 0.64442  0.37500  0.06016  Biso   1.000  O
  O19      1.0000 0.89442  0.12500  0.18984  Biso   1.000  O
  O20      1.0000 0.85558  0.12500  0.43984  Biso   1.000  O
  O21      1.0000 0.82654  0.37500  0.47139  Biso   1.000  O
  O22      1.0000 0.92346  0.37500  0.22139  Biso   1.000  O
  O23      1.0000 0.67346  0.12500  0.02861  Biso   1.000  O
  O24      1.0000 0.57654  0.12500  0.27861  Biso   1.000  O
  O25      1.0000 0.87639  0.47690  0.33355  Biso   1.000  O
  O26      1.0000 0.87361  0.27310  0.08355  Biso   1.000  O
  O27      1.0000 0.62361  0.22690  0.16645  Biso   1.000  O
  O28      1.0000 0.62639  0.02310  0.41645  Biso   1.000  O
  O29      1.0000 0.62361  0.02310  0.16645  Biso   1.000  O
  O30      1.0000 0.62639  0.22690  0.41645  Biso   1.000  O
  O31      1.0000 0.87639  0.27310  0.33355  Biso   1.000  O
  O32      1.0000 0.87361  0.47690  0.08355  Biso   1.000  O
  Fe8      1.0000 0.22544  0.37500  0.88703  Biso   1.000  Fe
  Fe9      1.0000 0.02456  0.37500  0.63703  Biso   1.000  Fe
  Fe10     1.0000 0.27456  0.12500  0.61297  Biso   1.000  Fe
  Fe11     1.0000 0.47544  0.12500  0.86297  Biso   1.000  Fe
  P9       1.0000 0.45068  0.37500  0.79691  Biso   1.000  P
  P10      1.0000 0.29932  0.37500  0.54691  Biso   1.000  P
  P11      1.0000 0.04932  0.12500  0.70309  Biso   1.000  P
  P12      1.0000 0.20068  0.12500  0.95309  Biso   1.000  P
  O33      1.0000 0.10558  0.37500  0.81016  Biso   1.000  O
  O34      1.0000 0.14442  0.37500  0.56016  Biso   1.000  O
  O35      1.0000 0.39442  0.12500  0.68984  Biso   1.000  O
  O36      1.0000 0.35558  0.12500  0.93984  Biso   1.000  O
  O37      1.0000 0.32654  0.37500  0.97139  Biso   1.000  O
  O38      1.0000 0.42346  0.37500  0.72139  Biso   1.000  O
  O39      1.0000 0.17346  0.12500  0.52861  Biso   1.000  O
  O40      1.0000 0.07654  0.12500  0.77861  Biso   1.000  O
  O41      1.0000 0.37639  0.47690  0.83355  Biso   1.000  O
  O42      1.0000 0.37361  0.27310  0.58355  Biso   1.000  O
  O43      1.0000 0.12361  0.22690  0.66645  Biso   1.000  O
  O44      1.0000 0.12639  0.02310  0.91645  Biso   1.000  O
  O45      1.0000 0.12361  0.02310  0.66645  Biso   1.000  O
  O46      1.0000 0.12639  0.22690  0.91645  Biso   1.000  O
  O47      1.0000 0.37639  0.27310  0.83355  Biso   1.000  O
  O48      1.0000 0.37361  0.47690  0.58355  Biso   1.000  O
  Fe12     1.0000 0.72544  0.37500  0.88703  Biso   1.000  Fe
  Fe13     1.0000 0.52456  0.37500  0.63703  Biso   1.000  Fe
  Fe14     1.0000 0.67077  0.71968  0.54099  Biso   1.000  Fe
  Fe15     1.0000 0.97544  0.12500  0.86297  Biso   1.000  Fe
  P13      1.0000 0.95068  0.37500  0.79691  Biso   1.000  P
  P14      1.0000 0.74854  0.96968  0.59628  Biso   1.000  P
  P15      1.0000 0.54932  0.12500  0.70309  Biso   1.000  P
  P16      1.0000 0.70068  0.12500  0.95309  Biso   1.000  P
  O49      1.0000 0.60558  0.37500  0.81016  Biso   1.000  O
  O50      1.0000 0.83896  0.96968  0.53321  Biso   1.000  O
  O51      1.0000 0.89442  0.12500  0.68984  Biso   1.000  O
  O52      1.0000 0.85558  0.12500  0.93984  Biso   1.000  O
  O53      1.0000 0.82654  0.37500  0.97139  Biso   1.000  O
  O54      1.0000 0.92346  0.37500  0.72139  Biso   1.000  O
  O55      1.0000 0.86393  0.71968  0.56559  Biso   1.000  O
  O56      1.0000 0.57654  0.12500  0.77861  Biso   1.000  O
  O57      1.0000 0.87639  0.47690  0.83355  Biso   1.000  O
  O58      1.0000 0.87361  0.27310  0.58355  Biso   1.000  O
  O59      1.0000 0.62361  0.22690  0.66645  Biso   1.000  O
  O60      1.0000 0.62639  0.02310  0.91645  Biso   1.000  O
  O61      1.0000 0.62361  0.02310  0.66645  Biso   1.000  O
  O62      1.0000 0.62639  0.22690  0.91645  Biso   1.000  O
  O63      1.0000 0.87639  0.27310  0.83355  Biso   1.000  O
  O64      1.0000 0.64316  0.07158  0.59613  Biso   1.000  O
  N1       1.0000 0.73174  0.54220  0.34813  Biso   1.000  N
